/*---------------------------------------------------------------------------*\
| =========                 |                                                 |
| \\      /  F ield         | OpenFOAM: The Open Source CFD Toolbox           |
|  \\    /   O peration     | Version:  1.6                                   |
|   \\  /    A nd           | Web:      http://www.openfoam.org               |
|    \\/     M anipulation  |                                                 |
\*---------------------------------------------------------------------------*/

FoamFile
{
    version         2.0;
    format          ascii;

    root            "";
    case            "";
    instance        "";
    local           "";

    class           dictionary;
    object          perturbationProperties;
}

// * * * * * * * * * * * * * * * * * * * * * * * * * * * * * * * * * * * * * //

//
// synthetic turbulence model info
//
syntheticTurbulenceType     "turbsim";
turbsimField    "ds20_TI20_dt2";    // Name of .bts binary full-field time
                                    //   series file in constant/boundaryData

//
// perturbed layer configuration
//
// scaling, s in [0,1] where 1: 100% of perturbation value applied,
//                           0: no perturbations
//
correctVariance         false;      // Scale perturbations to match specified
                                    //   'perturbationVariance' [optional]
perturbedLayerCutoff    "tanh";     // (simple | tanh, default) [optional]
transitionThickness     100.0;      // Parameter for tanh cutoff ~5*dz seems
                                    //   reasonable [optional]
transitionEdgeScaling   0.97;       // Value of s (e.g., 0.7, 0.97, 0.997, ) at
                                    //   (perturbedLayerTop - transitionThickness/2)
                                    //   for tanh cutoff [optional]

// initial / constant perturbation properties
perturbedLayerHeight    500.0;      // Approximate height up to which
                                    //   perturbations are applied
perturbationVariance    1.0;        // Streamwise velocity variance, used to
                                    //   (equally) scale the three variances IF
                                    //   'correctVariances' is true

// TODO:
updatePerturbedLayerHeight  false;
updatePerturbationVariance  false;

// ************************************************************************* //

