/*--------------------------------*- C++ -*----------------------------------*\
| =========                 |                                                 |
| \\      /  F ield         | OpenFOAM: The Open Source CFD Toolbox           |
|  \\    /   O peration     | Version:  2.4.x                                 |
|   \\  /    A nd           | Web:      www.OpenFOAM.org                      |
|    \\/     M anipulation  |                                                 |
\*---------------------------------------------------------------------------*/
FoamFile
{
    version     2.0;
    format      ascii;
    class       vectorAverageField;
    location    "constant/boundaryData/west/0";
    object      values;
}
// * * * * * * * * * * * * * * * * * * * * * * * * * * * * * * * * * * * * * //
// Average
(0 0 0)

5151
(
(8 0 0)
(8 0 0)
(8 0 0)
(8 0 0)
(8 0 0)
(8 0 0)
(8 0 0)
(8 0 0)
(8 0 0)
(8 0 0)
(8 0 0)
(8 0 0)
(8 0 0)
(8 0 0)
(8 0 0)
(8 0 0)
(8 0 0)
(8 0 0)
(8 0 0)
(8 0 0)
(8 0 0)
(8 0 0)
(8 0 0)
(8 0 0)
(8 0 0)
(8 0 0)
(8 0 0)
(8 0 0)
(8 0 0)
(8 0 0)
(8 0 0)
(8 0 0)
(8 0 0)
(8 0 0)
(8 0 0)
(8 0 0)
(8 0 0)
(8 0 0)
(8 0 0)
(8 0 0)
(8 0 0)
(8 0 0)
(8 0 0)
(8 0 0)
(8 0 0)
(8 0 0)
(8 0 0)
(8 0 0)
(8 0 0)
(8 0 0)
(8 0 0)
(8 0 0)
(8 0 0)
(8 0 0)
(8 0 0)
(8 0 0)
(8 0 0)
(8 0 0)
(8 0 0)
(8 0 0)
(8 0 0)
(8 0 0)
(8 0 0)
(8 0 0)
(8 0 0)
(8 0 0)
(8 0 0)
(8 0 0)
(8 0 0)
(8 0 0)
(8 0 0)
(8 0 0)
(8 0 0)
(8 0 0)
(8 0 0)
(8 0 0)
(8 0 0)
(8 0 0)
(8 0 0)
(8 0 0)
(8 0 0)
(8 0 0)
(8 0 0)
(8 0 0)
(8 0 0)
(8 0 0)
(8 0 0)
(8 0 0)
(8 0 0)
(8 0 0)
(8 0 0)
(8 0 0)
(8 0 0)
(8 0 0)
(8 0 0)
(8 0 0)
(8 0 0)
(8 0 0)
(8 0 0)
(8 0 0)
(8 0 0)
(8 0 0)
(8 0 0)
(8 0 0)
(8 0 0)
(8 0 0)
(8 0 0)
(8 0 0)
(8 0 0)
(8 0 0)
(8 0 0)
(8 0 0)
(8 0 0)
(8 0 0)
(8 0 0)
(8 0 0)
(8 0 0)
(8 0 0)
(8 0 0)
(8 0 0)
(8 0 0)
(8 0 0)
(8 0 0)
(8 0 0)
(8 0 0)
(8 0 0)
(8 0 0)
(8 0 0)
(8 0 0)
(8 0 0)
(8 0 0)
(8 0 0)
(8 0 0)
(8 0 0)
(8 0 0)
(8 0 0)
(8 0 0)
(8 0 0)
(8 0 0)
(8 0 0)
(8 0 0)
(8 0 0)
(8 0 0)
(8 0 0)
(8 0 0)
(8 0 0)
(8 0 0)
(8 0 0)
(8 0 0)
(8 0 0)
(8 0 0)
(8 0 0)
(8 0 0)
(8 0 0)
(8 0 0)
(8 0 0)
(8 0 0)
(8 0 0)
(8 0 0)
(8 0 0)
(8 0 0)
(8 0 0)
(8 0 0)
(8 0 0)
(8 0 0)
(8 0 0)
(8 0 0)
(8 0 0)
(8 0 0)
(8 0 0)
(8 0 0)
(8 0 0)
(8 0 0)
(8 0 0)
(8 0 0)
(8 0 0)
(8 0 0)
(8 0 0)
(8 0 0)
(8 0 0)
(8 0 0)
(8 0 0)
(8 0 0)
(8 0 0)
(8 0 0)
(8 0 0)
(8 0 0)
(8 0 0)
(8 0 0)
(8 0 0)
(8 0 0)
(8 0 0)
(8 0 0)
(8 0 0)
(8 0 0)
(8 0 0)
(8 0 0)
(8 0 0)
(8 0 0)
(8 0 0)
(8 0 0)
(8 0 0)
(8 0 0)
(8 0 0)
(8 0 0)
(8 0 0)
(8 0 0)
(8 0 0)
(8 0 0)
(8 0 0)
(8 0 0)
(8 0 0)
(8 0 0)
(8 0 0)
(8 0 0)
(8 0 0)
(8 0 0)
(8 0 0)
(8 0 0)
(8 0 0)
(8 0 0)
(8 0 0)
(8 0 0)
(8 0 0)
(8 0 0)
(8 0 0)
(8 0 0)
(8 0 0)
(8 0 0)
(8 0 0)
(8 0 0)
(8 0 0)
(8 0 0)
(8 0 0)
(8 0 0)
(8 0 0)
(8 0 0)
(8 0 0)
(8 0 0)
(8 0 0)
(8 0 0)
(8 0 0)
(8 0 0)
(8 0 0)
(8 0 0)
(8 0 0)
(8 0 0)
(8 0 0)
(8 0 0)
(8 0 0)
(8 0 0)
(8 0 0)
(8 0 0)
(8 0 0)
(8 0 0)
(8 0 0)
(8 0 0)
(8 0 0)
(8 0 0)
(8 0 0)
(8 0 0)
(8 0 0)
(8 0 0)
(8 0 0)
(8 0 0)
(8 0 0)
(8 0 0)
(8 0 0)
(8 0 0)
(8 0 0)
(8 0 0)
(8 0 0)
(8 0 0)
(8 0 0)
(8 0 0)
(8 0 0)
(8 0 0)
(8 0 0)
(8 0 0)
(8 0 0)
(8 0 0)
(8 0 0)
(8 0 0)
(8 0 0)
(8 0 0)
(8 0 0)
(8 0 0)
(8 0 0)
(8 0 0)
(8 0 0)
(8 0 0)
(8 0 0)
(8 0 0)
(8 0 0)
(8 0 0)
(8 0 0)
(8 0 0)
(8 0 0)
(8 0 0)
(8 0 0)
(8 0 0)
(8 0 0)
(8 0 0)
(8 0 0)
(8 0 0)
(8 0 0)
(8 0 0)
(8 0 0)
(8 0 0)
(8 0 0)
(8 0 0)
(8 0 0)
(8 0 0)
(8 0 0)
(8 0 0)
(8 0 0)
(8 0 0)
(8 0 0)
(8 0 0)
(8 0 0)
(8 0 0)
(8 0 0)
(8 0 0)
(8 0 0)
(8 0 0)
(8 0 0)
(8 0 0)
(8 0 0)
(8 0 0)
(8 0 0)
(8 0 0)
(8 0 0)
(8 0 0)
(8 0 0)
(8 0 0)
(8 0 0)
(8 0 0)
(8 0 0)
(8 0 0)
(8 0 0)
(8 0 0)
(8 0 0)
(8 0 0)
(8 0 0)
(8 0 0)
(8 0 0)
(8 0 0)
(8 0 0)
(8 0 0)
(8 0 0)
(8 0 0)
(8 0 0)
(8 0 0)
(8 0 0)
(8 0 0)
(8 0 0)
(8 0 0)
(8 0 0)
(8 0 0)
(8 0 0)
(8 0 0)
(8 0 0)
(8 0 0)
(8 0 0)
(8 0 0)
(8 0 0)
(8 0 0)
(8 0 0)
(8 0 0)
(8 0 0)
(8 0 0)
(8 0 0)
(8 0 0)
(8 0 0)
(8 0 0)
(8 0 0)
(8 0 0)
(8 0 0)
(8 0 0)
(8 0 0)
(8 0 0)
(8 0 0)
(8 0 0)
(8 0 0)
(8 0 0)
(8 0 0)
(8 0 0)
(8 0 0)
(8 0 0)
(8 0 0)
(8 0 0)
(8 0 0)
(8 0 0)
(8 0 0)
(8 0 0)
(8 0 0)
(8 0 0)
(8 0 0)
(8 0 0)
(8 0 0)
(8 0 0)
(8 0 0)
(8 0 0)
(8 0 0)
(8 0 0)
(8 0 0)
(8 0 0)
(8 0 0)
(8 0 0)
(8 0 0)
(8 0 0)
(8 0 0)
(8 0 0)
(8 0 0)
(8 0 0)
(8 0 0)
(8 0 0)
(8 0 0)
(8 0 0)
(8 0 0)
(8 0 0)
(8 0 0)
(8 0 0)
(8 0 0)
(8 0 0)
(8 0 0)
(8 0 0)
(8 0 0)
(8 0 0)
(8 0 0)
(8 0 0)
(8 0 0)
(8 0 0)
(8 0 0)
(8 0 0)
(8 0 0)
(8 0 0)
(8 0 0)
(8 0 0)
(8 0 0)
(8 0 0)
(8 0 0)
(8 0 0)
(8 0 0)
(8 0 0)
(8 0 0)
(8 0 0)
(8 0 0)
(8 0 0)
(8 0 0)
(8 0 0)
(8 0 0)
(8 0 0)
(8 0 0)
(8 0 0)
(8 0 0)
(8 0 0)
(8 0 0)
(8 0 0)
(8 0 0)
(8 0 0)
(8 0 0)
(8 0 0)
(8 0 0)
(8 0 0)
(8 0 0)
(8 0 0)
(8 0 0)
(8 0 0)
(8 0 0)
(8 0 0)
(8 0 0)
(8 0 0)
(8 0 0)
(8 0 0)
(8 0 0)
(8 0 0)
(8 0 0)
(8 0 0)
(8 0 0)
(8 0 0)
(8 0 0)
(8 0 0)
(8 0 0)
(8 0 0)
(8 0 0)
(8 0 0)
(8 0 0)
(8 0 0)
(8 0 0)
(8 0 0)
(8 0 0)
(8 0 0)
(8 0 0)
(8 0 0)
(8 0 0)
(8 0 0)
(8 0 0)
(8 0 0)
(8 0 0)
(8 0 0)
(8 0 0)
(8 0 0)
(8 0 0)
(8 0 0)
(8 0 0)
(8 0 0)
(8 0 0)
(8 0 0)
(8 0 0)
(8 0 0)
(8 0 0)
(8 0 0)
(8 0 0)
(8 0 0)
(8 0 0)
(8 0 0)
(8 0 0)
(8 0 0)
(8 0 0)
(8 0 0)
(8 0 0)
(8 0 0)
(8 0 0)
(8 0 0)
(8 0 0)
(8 0 0)
(8 0 0)
(8 0 0)
(8 0 0)
(8 0 0)
(8 0 0)
(8 0 0)
(8 0 0)
(8 0 0)
(8 0 0)
(8 0 0)
(8 0 0)
(8 0 0)
(8 0 0)
(8 0 0)
(8 0 0)
(8 0 0)
(8 0 0)
(8 0 0)
(8 0 0)
(8 0 0)
(8 0 0)
(8 0 0)
(8 0 0)
(8 0 0)
(8 0 0)
(8 0 0)
(8 0 0)
(8 0 0)
(8 0 0)
(8 0 0)
(8 0 0)
(8 0 0)
(8 0 0)
(8 0 0)
(8 0 0)
(8 0 0)
(8 0 0)
(8 0 0)
(8 0 0)
(8 0 0)
(8 0 0)
(8 0 0)
(8 0 0)
(8 0 0)
(8 0 0)
(8 0 0)
(8 0 0)
(8 0 0)
(8 0 0)
(8 0 0)
(8 0 0)
(8 0 0)
(8 0 0)
(8 0 0)
(8 0 0)
(8 0 0)
(8 0 0)
(8 0 0)
(8 0 0)
(8 0 0)
(8 0 0)
(8 0 0)
(8 0 0)
(8 0 0)
(8 0 0)
(8 0 0)
(8 0 0)
(8 0 0)
(8 0 0)
(8 0 0)
(8 0 0)
(8 0 0)
(8 0 0)
(8 0 0)
(8 0 0)
(8 0 0)
(8 0 0)
(8 0 0)
(8 0 0)
(8 0 0)
(8 0 0)
(8 0 0)
(8 0 0)
(8 0 0)
(8 0 0)
(8 0 0)
(8 0 0)
(8 0 0)
(8 0 0)
(8 0 0)
(8 0 0)
(8 0 0)
(8 0 0)
(8 0 0)
(8 0 0)
(8 0 0)
(8 0 0)
(8 0 0)
(8 0 0)
(8 0 0)
(8 0 0)
(8 0 0)
(8 0 0)
(8 0 0)
(8 0 0)
(8 0 0)
(8 0 0)
(8 0 0)
(8 0 0)
(8 0 0)
(8 0 0)
(8 0 0)
(8 0 0)
(8 0 0)
(8 0 0)
(8 0 0)
(8 0 0)
(8 0 0)
(8 0 0)
(8 0 0)
(8 0 0)
(8 0 0)
(8 0 0)
(8 0 0)
(8 0 0)
(8 0 0)
(8 0 0)
(8 0 0)
(8 0 0)
(8 0 0)
(8 0 0)
(8 0 0)
(8 0 0)
(8 0 0)
(8 0 0)
(8 0 0)
(8 0 0)
(8 0 0)
(8 0 0)
(8 0 0)
(8 0 0)
(8 0 0)
(8 0 0)
(8 0 0)
(8 0 0)
(8 0 0)
(8 0 0)
(8 0 0)
(8 0 0)
(8 0 0)
(8 0 0)
(8 0 0)
(8 0 0)
(8 0 0)
(8 0 0)
(8 0 0)
(8 0 0)
(8 0 0)
(8 0 0)
(8 0 0)
(8 0 0)
(8 0 0)
(8 0 0)
(8 0 0)
(8 0 0)
(8 0 0)
(8 0 0)
(8 0 0)
(8 0 0)
(8 0 0)
(8 0 0)
(8 0 0)
(8 0 0)
(8 0 0)
(8 0 0)
(8 0 0)
(8 0 0)
(8 0 0)
(8 0 0)
(8 0 0)
(8 0 0)
(8 0 0)
(8 0 0)
(8 0 0)
(8 0 0)
(8 0 0)
(8 0 0)
(8 0 0)
(8 0 0)
(8 0 0)
(8 0 0)
(8 0 0)
(8 0 0)
(8 0 0)
(8 0 0)
(8 0 0)
(8 0 0)
(8 0 0)
(8 0 0)
(8 0 0)
(8 0 0)
(8 0 0)
(8 0 0)
(8 0 0)
(8 0 0)
(8 0 0)
(8 0 0)
(8 0 0)
(8 0 0)
(8 0 0)
(8 0 0)
(8 0 0)
(8 0 0)
(8 0 0)
(8 0 0)
(8 0 0)
(8 0 0)
(8 0 0)
(8 0 0)
(8 0 0)
(8 0 0)
(8 0 0)
(8 0 0)
(8 0 0)
(8 0 0)
(8 0 0)
(8 0 0)
(8 0 0)
(8 0 0)
(8 0 0)
(8 0 0)
(8 0 0)
(8 0 0)
(8 0 0)
(8 0 0)
(8 0 0)
(8 0 0)
(8 0 0)
(8 0 0)
(8 0 0)
(8 0 0)
(8 0 0)
(8 0 0)
(8 0 0)
(8 0 0)
(8 0 0)
(8 0 0)
(8 0 0)
(8 0 0)
(8 0 0)
(8 0 0)
(8 0 0)
(8 0 0)
(8 0 0)
(8 0 0)
(8 0 0)
(8 0 0)
(8 0 0)
(8 0 0)
(8 0 0)
(8 0 0)
(8 0 0)
(8 0 0)
(8 0 0)
(8 0 0)
(8 0 0)
(8 0 0)
(8 0 0)
(8 0 0)
(8 0 0)
(8 0 0)
(8 0 0)
(8 0 0)
(8 0 0)
(8 0 0)
(8 0 0)
(8 0 0)
(8 0 0)
(8 0 0)
(8 0 0)
(8 0 0)
(8 0 0)
(8 0 0)
(8 0 0)
(8 0 0)
(8 0 0)
(8 0 0)
(8 0 0)
(8 0 0)
(8 0 0)
(8 0 0)
(8 0 0)
(8 0 0)
(8 0 0)
(8 0 0)
(8 0 0)
(8 0 0)
(8 0 0)
(8 0 0)
(8 0 0)
(8 0 0)
(8 0 0)
(8 0 0)
(8 0 0)
(8 0 0)
(8 0 0)
(8 0 0)
(8 0 0)
(8 0 0)
(8 0 0)
(8 0 0)
(8 0 0)
(8 0 0)
(8 0 0)
(8 0 0)
(8 0 0)
(8 0 0)
(8 0 0)
(8 0 0)
(8 0 0)
(8 0 0)
(8 0 0)
(8 0 0)
(8 0 0)
(8 0 0)
(8 0 0)
(8 0 0)
(8 0 0)
(8 0 0)
(8 0 0)
(8 0 0)
(8 0 0)
(8 0 0)
(8 0 0)
(8 0 0)
(8 0 0)
(8 0 0)
(8 0 0)
(8 0 0)
(8 0 0)
(8 0 0)
(8 0 0)
(8 0 0)
(8 0 0)
(8 0 0)
(8 0 0)
(8 0 0)
(8 0 0)
(8 0 0)
(8 0 0)
(8 0 0)
(8 0 0)
(8 0 0)
(8 0 0)
(8 0 0)
(8 0 0)
(8 0 0)
(8 0 0)
(8 0 0)
(8 0 0)
(8 0 0)
(8 0 0)
(8 0 0)
(8 0 0)
(8 0 0)
(8 0 0)
(8 0 0)
(8 0 0)
(8 0 0)
(8 0 0)
(8 0 0)
(8 0 0)
(8 0 0)
(8 0 0)
(8 0 0)
(8 0 0)
(8 0 0)
(8 0 0)
(8 0 0)
(8 0 0)
(8 0 0)
(8 0 0)
(8 0 0)
(8 0 0)
(8 0 0)
(8 0 0)
(8 0 0)
(8 0 0)
(8 0 0)
(8 0 0)
(8 0 0)
(8 0 0)
(8 0 0)
(8 0 0)
(8 0 0)
(8 0 0)
(8 0 0)
(8 0 0)
(8 0 0)
(8 0 0)
(8 0 0)
(8 0 0)
(8 0 0)
(8 0 0)
(8 0 0)
(8 0 0)
(8 0 0)
(8 0 0)
(8 0 0)
(8 0 0)
(8 0 0)
(8 0 0)
(8 0 0)
(8 0 0)
(8 0 0)
(8 0 0)
(8 0 0)
(8 0 0)
(8 0 0)
(8 0 0)
(8 0 0)
(8 0 0)
(8 0 0)
(8 0 0)
(8 0 0)
(8 0 0)
(8 0 0)
(8 0 0)
(8 0 0)
(8 0 0)
(8 0 0)
(8 0 0)
(8 0 0)
(8 0 0)
(8 0 0)
(8 0 0)
(8 0 0)
(8 0 0)
(8 0 0)
(8 0 0)
(8 0 0)
(8 0 0)
(8 0 0)
(8 0 0)
(8 0 0)
(8 0 0)
(8 0 0)
(8 0 0)
(8 0 0)
(8 0 0)
(8 0 0)
(8 0 0)
(8 0 0)
(8 0 0)
(8 0 0)
(8 0 0)
(8 0 0)
(8 0 0)
(8 0 0)
(8 0 0)
(8 0 0)
(8 0 0)
(8 0 0)
(8 0 0)
(8 0 0)
(8 0 0)
(8 0 0)
(8 0 0)
(8 0 0)
(8 0 0)
(8 0 0)
(8 0 0)
(8 0 0)
(8 0 0)
(8 0 0)
(8 0 0)
(8 0 0)
(8 0 0)
(8 0 0)
(8 0 0)
(8 0 0)
(8 0 0)
(8 0 0)
(8 0 0)
(8 0 0)
(8 0 0)
(8 0 0)
(8 0 0)
(8 0 0)
(8 0 0)
(8 0 0)
(8 0 0)
(8 0 0)
(8 0 0)
(8 0 0)
(8 0 0)
(8 0 0)
(8 0 0)
(8 0 0)
(8 0 0)
(8 0 0)
(8 0 0)
(8 0 0)
(8 0 0)
(8 0 0)
(8 0 0)
(8 0 0)
(8 0 0)
(8 0 0)
(8 0 0)
(8 0 0)
(8 0 0)
(8 0 0)
(8 0 0)
(8 0 0)
(8 0 0)
(8 0 0)
(8 0 0)
(8 0 0)
(8 0 0)
(8 0 0)
(8 0 0)
(8 0 0)
(8 0 0)
(8 0 0)
(8 0 0)
(8 0 0)
(8 0 0)
(8 0 0)
(8 0 0)
(8 0 0)
(8 0 0)
(8 0 0)
(8 0 0)
(8 0 0)
(8 0 0)
(8 0 0)
(8 0 0)
(8 0 0)
(8 0 0)
(8 0 0)
(8 0 0)
(8 0 0)
(8 0 0)
(8 0 0)
(8 0 0)
(8 0 0)
(8 0 0)
(8 0 0)
(8 0 0)
(8 0 0)
(8 0 0)
(8 0 0)
(8 0 0)
(8 0 0)
(8 0 0)
(8 0 0)
(8 0 0)
(8 0 0)
(8 0 0)
(8 0 0)
(8 0 0)
(8 0 0)
(8 0 0)
(8 0 0)
(8 0 0)
(8 0 0)
(8 0 0)
(8 0 0)
(8 0 0)
(8 0 0)
(8 0 0)
(8 0 0)
(8 0 0)
(8 0 0)
(8 0 0)
(8 0 0)
(8 0 0)
(8 0 0)
(8 0 0)
(8 0 0)
(8 0 0)
(8 0 0)
(8 0 0)
(8 0 0)
(8 0 0)
(8 0 0)
(8 0 0)
(8 0 0)
(8 0 0)
(8 0 0)
(8 0 0)
(8 0 0)
(8 0 0)
(8 0 0)
(8 0 0)
(8 0 0)
(8 0 0)
(8 0 0)
(8 0 0)
(8 0 0)
(8 0 0)
(8 0 0)
(8 0 0)
(8 0 0)
(8 0 0)
(8 0 0)
(8 0 0)
(8 0 0)
(8 0 0)
(8 0 0)
(8 0 0)
(8 0 0)
(8 0 0)
(8 0 0)
(8 0 0)
(8 0 0)
(8 0 0)
(8 0 0)
(8 0 0)
(8 0 0)
(8 0 0)
(8 0 0)
(8 0 0)
(8 0 0)
(8 0 0)
(8 0 0)
(8 0 0)
(8 0 0)
(8 0 0)
(8 0 0)
(8 0 0)
(8 0 0)
(8 0 0)
(8 0 0)
(8 0 0)
(8 0 0)
(8 0 0)
(8 0 0)
(8 0 0)
(8 0 0)
(8 0 0)
(8 0 0)
(8 0 0)
(8 0 0)
(8 0 0)
(8 0 0)
(8 0 0)
(8 0 0)
(8 0 0)
(8 0 0)
(8 0 0)
(8 0 0)
(8 0 0)
(8 0 0)
(8 0 0)
(8 0 0)
(8 0 0)
(8 0 0)
(8 0 0)
(8 0 0)
(8 0 0)
(8 0 0)
(8 0 0)
(8 0 0)
(8 0 0)
(8 0 0)
(8 0 0)
(8 0 0)
(8 0 0)
(8 0 0)
(8 0 0)
(8 0 0)
(8 0 0)
(8 0 0)
(8 0 0)
(8 0 0)
(8 0 0)
(8 0 0)
(8 0 0)
(8 0 0)
(8 0 0)
(8 0 0)
(8 0 0)
(8 0 0)
(8 0 0)
(8 0 0)
(8 0 0)
(8 0 0)
(8 0 0)
(8 0 0)
(8 0 0)
(8 0 0)
(8 0 0)
(8 0 0)
(8 0 0)
(8 0 0)
(8 0 0)
(8 0 0)
(8 0 0)
(8 0 0)
(8 0 0)
(8 0 0)
(8 0 0)
(8 0 0)
(8 0 0)
(8 0 0)
(8 0 0)
(8 0 0)
(8 0 0)
(8 0 0)
(8 0 0)
(8 0 0)
(8 0 0)
(8 0 0)
(8 0 0)
(8 0 0)
(8 0 0)
(8 0 0)
(8 0 0)
(8 0 0)
(8 0 0)
(8 0 0)
(8 0 0)
(8 0 0)
(8 0 0)
(8 0 0)
(8 0 0)
(8 0 0)
(8 0 0)
(8 0 0)
(8 0 0)
(8 0 0)
(8 0 0)
(8 0 0)
(8 0 0)
(8 0 0)
(8 0 0)
(8 0 0)
(8 0 0)
(8 0 0)
(8 0 0)
(8 0 0)
(8 0 0)
(8 0 0)
(8 0 0)
(8 0 0)
(8 0 0)
(8 0 0)
(8 0 0)
(8 0 0)
(8 0 0)
(8 0 0)
(8 0 0)
(8 0 0)
(8 0 0)
(8 0 0)
(8 0 0)
(8 0 0)
(8 0 0)
(8 0 0)
(8 0 0)
(8 0 0)
(8 0 0)
(8 0 0)
(8 0 0)
(8 0 0)
(8 0 0)
(8 0 0)
(8 0 0)
(8 0 0)
(8 0 0)
(8 0 0)
(8 0 0)
(8 0 0)
(8 0 0)
(8 0 0)
(8 0 0)
(8 0 0)
(8 0 0)
(8 0 0)
(8 0 0)
(8 0 0)
(8 0 0)
(8 0 0)
(8 0 0)
(8 0 0)
(8 0 0)
(8 0 0)
(8 0 0)
(8 0 0)
(8 0 0)
(8 0 0)
(8 0 0)
(8 0 0)
(8 0 0)
(8 0 0)
(8 0 0)
(8 0 0)
(8 0 0)
(8 0 0)
(8 0 0)
(8 0 0)
(8 0 0)
(8 0 0)
(8 0 0)
(8 0 0)
(8 0 0)
(8 0 0)
(8 0 0)
(8 0 0)
(8 0 0)
(8 0 0)
(8 0 0)
(8 0 0)
(8 0 0)
(8 0 0)
(8 0 0)
(8 0 0)
(8 0 0)
(8 0 0)
(8 0 0)
(8 0 0)
(8 0 0)
(8 0 0)
(8 0 0)
(8 0 0)
(8 0 0)
(8 0 0)
(8 0 0)
(8 0 0)
(8 0 0)
(8 0 0)
(8 0 0)
(8 0 0)
(8 0 0)
(8 0 0)
(8 0 0)
(8 0 0)
(8 0 0)
(8 0 0)
(8 0 0)
(8 0 0)
(8 0 0)
(8 0 0)
(8 0 0)
(8 0 0)
(8 0 0)
(8 0 0)
(8 0 0)
(8 0 0)
(8 0 0)
(8 0 0)
(8 0 0)
(8 0 0)
(8 0 0)
(8 0 0)
(8 0 0)
(8 0 0)
(8 0 0)
(8 0 0)
(8 0 0)
(8 0 0)
(8 0 0)
(8 0 0)
(8 0 0)
(8 0 0)
(8 0 0)
(8 0 0)
(8 0 0)
(8 0 0)
(8 0 0)
(8 0 0)
(8 0 0)
(8 0 0)
(8 0 0)
(8 0 0)
(8 0 0)
(8 0 0)
(8 0 0)
(8 0 0)
(8 0 0)
(8 0 0)
(8 0 0)
(8 0 0)
(8 0 0)
(8 0 0)
(8 0 0)
(8 0 0)
(8 0 0)
(8 0 0)
(8 0 0)
(8 0 0)
(8 0 0)
(8 0 0)
(8 0 0)
(8 0 0)
(8 0 0)
(8 0 0)
(8 0 0)
(8 0 0)
(8 0 0)
(8 0 0)
(8 0 0)
(8 0 0)
(8 0 0)
(8 0 0)
(8 0 0)
(8 0 0)
(8 0 0)
(8 0 0)
(8 0 0)
(8 0 0)
(8 0 0)
(8 0 0)
(8 0 0)
(8 0 0)
(8 0 0)
(8 0 0)
(8 0 0)
(8 0 0)
(8 0 0)
(8 0 0)
(8 0 0)
(8 0 0)
(8 0 0)
(8 0 0)
(8 0 0)
(8 0 0)
(8 0 0)
(8 0 0)
(8 0 0)
(8 0 0)
(8 0 0)
(8 0 0)
(8 0 0)
(8 0 0)
(8 0 0)
(8 0 0)
(8 0 0)
(8 0 0)
(8 0 0)
(8 0 0)
(8 0 0)
(8 0 0)
(8 0 0)
(8 0 0)
(8 0 0)
(8 0 0)
(8 0 0)
(8 0 0)
(8 0 0)
(8 0 0)
(8 0 0)
(8 0 0)
(8 0 0)
(8 0 0)
(8 0 0)
(8 0 0)
(8 0 0)
(8 0 0)
(8 0 0)
(8 0 0)
(8 0 0)
(8 0 0)
(8 0 0)
(8 0 0)
(8 0 0)
(8 0 0)
(8 0 0)
(8 0 0)
(8 0 0)
(8 0 0)
(8 0 0)
(8 0 0)
(8 0 0)
(8 0 0)
(8 0 0)
(8 0 0)
(8 0 0)
(8 0 0)
(8 0 0)
(8 0 0)
(8 0 0)
(8 0 0)
(8 0 0)
(8 0 0)
(8 0 0)
(8 0 0)
(8 0 0)
(8 0 0)
(8 0 0)
(8 0 0)
(8 0 0)
(8 0 0)
(8 0 0)
(8 0 0)
(8 0 0)
(8 0 0)
(8 0 0)
(8 0 0)
(8 0 0)
(8 0 0)
(8 0 0)
(8 0 0)
(8 0 0)
(8 0 0)
(8 0 0)
(8 0 0)
(8 0 0)
(8 0 0)
(8 0 0)
(8 0 0)
(8 0 0)
(8 0 0)
(8 0 0)
(8 0 0)
(8 0 0)
(8 0 0)
(8 0 0)
(8 0 0)
(8 0 0)
(8 0 0)
(8 0 0)
(8 0 0)
(8 0 0)
(8 0 0)
(8 0 0)
(8 0 0)
(8 0 0)
(8 0 0)
(8 0 0)
(8 0 0)
(8 0 0)
(8 0 0)
(8 0 0)
(8 0 0)
(8 0 0)
(8 0 0)
(8 0 0)
(8 0 0)
(8 0 0)
(8 0 0)
(8 0 0)
(8 0 0)
(8 0 0)
(8 0 0)
(8 0 0)
(8 0 0)
(8 0 0)
(8 0 0)
(8 0 0)
(8 0 0)
(8 0 0)
(8 0 0)
(8 0 0)
(8 0 0)
(8 0 0)
(8 0 0)
(8 0 0)
(8 0 0)
(8 0 0)
(8 0 0)
(8 0 0)
(8 0 0)
(8 0 0)
(8 0 0)
(8 0 0)
(8 0 0)
(8 0 0)
(8 0 0)
(8 0 0)
(8 0 0)
(8 0 0)
(8 0 0)
(8 0 0)
(8 0 0)
(8 0 0)
(8 0 0)
(8 0 0)
(8 0 0)
(8 0 0)
(8 0 0)
(8 0 0)
(8 0 0)
(8 0 0)
(8 0 0)
(8 0 0)
(8 0 0)
(8 0 0)
(8 0 0)
(8 0 0)
(8 0 0)
(8 0 0)
(8 0 0)
(8 0 0)
(8 0 0)
(8 0 0)
(8 0 0)
(8 0 0)
(8 0 0)
(8 0 0)
(8 0 0)
(8 0 0)
(8 0 0)
(8 0 0)
(8 0 0)
(8 0 0)
(8 0 0)
(8 0 0)
(8 0 0)
(8 0 0)
(8 0 0)
(8 0 0)
(8 0 0)
(8 0 0)
(8 0 0)
(8 0 0)
(8 0 0)
(8 0 0)
(8 0 0)
(8 0 0)
(8 0 0)
(8 0 0)
(8 0 0)
(8 0 0)
(8 0 0)
(8 0 0)
(8 0 0)
(8 0 0)
(8 0 0)
(8 0 0)
(8 0 0)
(8 0 0)
(8 0 0)
(8 0 0)
(8 0 0)
(8 0 0)
(8 0 0)
(8 0 0)
(8 0 0)
(8 0 0)
(8 0 0)
(8 0 0)
(8 0 0)
(8 0 0)
(8 0 0)
(8 0 0)
(8 0 0)
(8 0 0)
(8 0 0)
(8 0 0)
(8 0 0)
(8 0 0)
(8 0 0)
(8 0 0)
(8 0 0)
(8 0 0)
(8 0 0)
(8 0 0)
(8 0 0)
(8 0 0)
(8 0 0)
(8 0 0)
(8 0 0)
(8 0 0)
(8 0 0)
(8 0 0)
(8 0 0)
(8 0 0)
(8 0 0)
(8 0 0)
(8 0 0)
(8 0 0)
(8 0 0)
(8 0 0)
(8 0 0)
(8 0 0)
(8 0 0)
(8 0 0)
(8 0 0)
(8 0 0)
(8 0 0)
(8 0 0)
(8 0 0)
(8 0 0)
(8 0 0)
(8 0 0)
(8 0 0)
(8 0 0)
(8 0 0)
(8 0 0)
(8 0 0)
(8 0 0)
(8 0 0)
(8 0 0)
(8 0 0)
(8 0 0)
(8 0 0)
(8 0 0)
(8 0 0)
(8 0 0)
(8 0 0)
(8 0 0)
(8 0 0)
(8 0 0)
(8 0 0)
(8 0 0)
(8 0 0)
(8 0 0)
(8 0 0)
(8 0 0)
(8 0 0)
(8 0 0)
(8 0 0)
(8 0 0)
(8 0 0)
(8 0 0)
(8 0 0)
(8 0 0)
(8 0 0)
(8 0 0)
(8 0 0)
(8 0 0)
(8 0 0)
(8 0 0)
(8 0 0)
(8 0 0)
(8 0 0)
(8 0 0)
(8 0 0)
(8 0 0)
(8 0 0)
(8 0 0)
(8 0 0)
(8 0 0)
(8 0 0)
(8 0 0)
(8 0 0)
(8 0 0)
(8 0 0)
(8 0 0)
(8 0 0)
(8 0 0)
(8 0 0)
(8 0 0)
(8 0 0)
(8 0 0)
(8 0 0)
(8 0 0)
(8 0 0)
(8 0 0)
(8 0 0)
(8 0 0)
(8 0 0)
(8 0 0)
(8 0 0)
(8 0 0)
(8 0 0)
(8 0 0)
(8 0 0)
(8 0 0)
(8 0 0)
(8 0 0)
(8 0 0)
(8 0 0)
(8 0 0)
(8 0 0)
(8 0 0)
(8 0 0)
(8 0 0)
(8 0 0)
(8 0 0)
(8 0 0)
(8 0 0)
(8 0 0)
(8 0 0)
(8 0 0)
(8 0 0)
(8 0 0)
(8 0 0)
(8 0 0)
(8 0 0)
(8 0 0)
(8 0 0)
(8 0 0)
(8 0 0)
(8 0 0)
(8 0 0)
(8 0 0)
(8 0 0)
(8 0 0)
(8 0 0)
(8 0 0)
(8 0 0)
(8 0 0)
(8 0 0)
(8 0 0)
(8 0 0)
(8 0 0)
(8 0 0)
(8 0 0)
(8 0 0)
(8 0 0)
(8 0 0)
(8 0 0)
(8 0 0)
(8 0 0)
(8 0 0)
(8 0 0)
(8 0 0)
(8 0 0)
(8 0 0)
(8 0 0)
(8 0 0)
(8 0 0)
(8 0 0)
(8 0 0)
(8 0 0)
(8 0 0)
(8 0 0)
(8 0 0)
(8 0 0)
(8 0 0)
(8 0 0)
(8 0 0)
(8 0 0)
(8 0 0)
(8 0 0)
(8 0 0)
(8 0 0)
(8 0 0)
(8 0 0)
(8 0 0)
(8 0 0)
(8 0 0)
(8 0 0)
(8 0 0)
(8 0 0)
(8 0 0)
(8 0 0)
(8 0 0)
(8 0 0)
(8 0 0)
(8 0 0)
(8 0 0)
(8 0 0)
(8 0 0)
(8 0 0)
(8 0 0)
(8 0 0)
(8 0 0)
(8 0 0)
(8 0 0)
(8 0 0)
(8 0 0)
(8 0 0)
(8 0 0)
(8 0 0)
(8 0 0)
(8 0 0)
(8 0 0)
(8 0 0)
(8 0 0)
(8 0 0)
(8 0 0)
(8 0 0)
(8 0 0)
(8 0 0)
(8 0 0)
(8 0 0)
(8 0 0)
(8 0 0)
(8 0 0)
(8 0 0)
(8 0 0)
(8 0 0)
(8 0 0)
(8 0 0)
(8 0 0)
(8 0 0)
(8 0 0)
(8 0 0)
(8 0 0)
(8 0 0)
(8 0 0)
(8 0 0)
(8 0 0)
(8 0 0)
(8 0 0)
(8 0 0)
(8 0 0)
(8 0 0)
(8 0 0)
(8 0 0)
(8 0 0)
(8 0 0)
(8 0 0)
(8 0 0)
(8 0 0)
(8 0 0)
(8 0 0)
(8 0 0)
(8 0 0)
(8 0 0)
(8 0 0)
(8 0 0)
(8 0 0)
(8 0 0)
(8 0 0)
(8 0 0)
(8 0 0)
(8 0 0)
(8 0 0)
(8 0 0)
(8 0 0)
(8 0 0)
(8 0 0)
(8 0 0)
(8 0 0)
(8 0 0)
(8 0 0)
(8 0 0)
(8 0 0)
(8 0 0)
(8 0 0)
(8 0 0)
(8 0 0)
(8 0 0)
(8 0 0)
(8 0 0)
(8 0 0)
(8 0 0)
(8 0 0)
(8 0 0)
(8 0 0)
(8 0 0)
(8 0 0)
(8 0 0)
(8 0 0)
(8 0 0)
(8 0 0)
(8 0 0)
(8 0 0)
(8 0 0)
(8 0 0)
(8 0 0)
(8 0 0)
(8 0 0)
(8 0 0)
(8 0 0)
(8 0 0)
(8 0 0)
(8 0 0)
(8 0 0)
(8 0 0)
(8 0 0)
(8 0 0)
(8 0 0)
(8 0 0)
(8 0 0)
(8 0 0)
(8 0 0)
(8 0 0)
(8 0 0)
(8 0 0)
(8 0 0)
(8 0 0)
(8 0 0)
(8 0 0)
(8 0 0)
(8 0 0)
(8 0 0)
(8 0 0)
(8 0 0)
(8 0 0)
(8 0 0)
(8 0 0)
(8 0 0)
(8 0 0)
(8 0 0)
(8 0 0)
(8 0 0)
(8 0 0)
(8 0 0)
(8 0 0)
(8 0 0)
(8 0 0)
(8 0 0)
(8 0 0)
(8 0 0)
(8 0 0)
(8 0 0)
(8 0 0)
(8 0 0)
(8 0 0)
(8 0 0)
(8 0 0)
(8 0 0)
(8 0 0)
(8 0 0)
(8 0 0)
(8 0 0)
(8 0 0)
(8 0 0)
(8 0 0)
(8 0 0)
(8 0 0)
(8 0 0)
(8 0 0)
(8 0 0)
(8 0 0)
(8 0 0)
(8 0 0)
(8 0 0)
(8 0 0)
(8 0 0)
(8 0 0)
(8 0 0)
(8 0 0)
(8 0 0)
(8 0 0)
(8 0 0)
(8 0 0)
(8 0 0)
(8 0 0)
(8 0 0)
(8 0 0)
(8 0 0)
(8 0 0)
(8 0 0)
(8 0 0)
(8 0 0)
(8 0 0)
(8 0 0)
(8 0 0)
(8 0 0)
(8 0 0)
(8 0 0)
(8 0 0)
(8 0 0)
(8 0 0)
(8 0 0)
(8 0 0)
(8 0 0)
(8 0 0)
(8 0 0)
(8 0 0)
(8 0 0)
(8 0 0)
(8 0 0)
(8 0 0)
(8 0 0)
(8 0 0)
(8 0 0)
(8 0 0)
(8 0 0)
(8 0 0)
(8 0 0)
(8 0 0)
(8 0 0)
(8 0 0)
(8 0 0)
(8 0 0)
(8 0 0)
(8 0 0)
(8 0 0)
(8 0 0)
(8 0 0)
(8 0 0)
(8 0 0)
(8 0 0)
(8 0 0)
(8 0 0)
(8 0 0)
(8 0 0)
(8 0 0)
(8 0 0)
(8 0 0)
(8 0 0)
(8 0 0)
(8 0 0)
(8 0 0)
(8 0 0)
(8 0 0)
(8 0 0)
(8 0 0)
(8 0 0)
(8 0 0)
(8 0 0)
(8 0 0)
(8 0 0)
(8 0 0)
(8 0 0)
(8 0 0)
(8 0 0)
(8 0 0)
(8 0 0)
(8 0 0)
(8 0 0)
(8 0 0)
(8 0 0)
(8 0 0)
(8 0 0)
(8 0 0)
(8 0 0)
(8 0 0)
(8 0 0)
(8 0 0)
(8 0 0)
(8 0 0)
(8 0 0)
(8 0 0)
(8 0 0)
(8 0 0)
(8 0 0)
(8 0 0)
(8 0 0)
(8 0 0)
(8 0 0)
(8 0 0)
(8 0 0)
(8 0 0)
(8 0 0)
(8 0 0)
(8 0 0)
(8 0 0)
(8 0 0)
(8 0 0)
(8 0 0)
(8 0 0)
(8 0 0)
(8 0 0)
(8 0 0)
(8 0 0)
(8 0 0)
(8 0 0)
(8 0 0)
(8 0 0)
(8 0 0)
(8 0 0)
(8 0 0)
(8 0 0)
(8 0 0)
(8 0 0)
(8 0 0)
(8 0 0)
(8 0 0)
(8 0 0)
(8 0 0)
(8 0 0)
(8 0 0)
(8 0 0)
(8 0 0)
(8 0 0)
(8 0 0)
(8 0 0)
(8 0 0)
(8 0 0)
(8 0 0)
(8 0 0)
(8 0 0)
(8 0 0)
(8 0 0)
(8 0 0)
(8 0 0)
(8 0 0)
(8 0 0)
(8 0 0)
(8 0 0)
(8 0 0)
(8 0 0)
(8 0 0)
(8 0 0)
(8 0 0)
(8 0 0)
(8 0 0)
(8 0 0)
(8 0 0)
(8 0 0)
(8 0 0)
(8 0 0)
(8 0 0)
(8 0 0)
(8 0 0)
(8 0 0)
(8 0 0)
(8 0 0)
(8 0 0)
(8 0 0)
(8 0 0)
(8 0 0)
(8 0 0)
(8 0 0)
(8 0 0)
(8 0 0)
(8 0 0)
(8 0 0)
(8 0 0)
(8 0 0)
(8 0 0)
(8 0 0)
(8 0 0)
(8 0 0)
(8 0 0)
(8 0 0)
(8 0 0)
(8 0 0)
(8 0 0)
(8 0 0)
(8 0 0)
(8 0 0)
(8 0 0)
(8 0 0)
(8 0 0)
(8 0 0)
(8 0 0)
(8 0 0)
(8 0 0)
(8 0 0)
(8 0 0)
(8 0 0)
(8 0 0)
(8 0 0)
(8 0 0)
(8 0 0)
(8 0 0)
(8 0 0)
(8 0 0)
(8 0 0)
(8 0 0)
(8 0 0)
(8 0 0)
(8 0 0)
(8 0 0)
(8 0 0)
(8 0 0)
(8 0 0)
(8 0 0)
(8 0 0)
(8 0 0)
(8 0 0)
(8 0 0)
(8 0 0)
(8 0 0)
(8 0 0)
(8 0 0)
(8 0 0)
(8 0 0)
(8 0 0)
(8 0 0)
(8 0 0)
(8 0 0)
(8 0 0)
(8 0 0)
(8 0 0)
(8 0 0)
(8 0 0)
(8 0 0)
(8 0 0)
(8 0 0)
(8 0 0)
(8 0 0)
(8 0 0)
(8 0 0)
(8 0 0)
(8 0 0)
(8 0 0)
(8 0 0)
(8 0 0)
(8 0 0)
(8 0 0)
(8 0 0)
(8 0 0)
(8 0 0)
(8 0 0)
(8 0 0)
(8 0 0)
(8 0 0)
(8 0 0)
(8 0 0)
(8 0 0)
(8 0 0)
(8 0 0)
(8 0 0)
(8 0 0)
(8 0 0)
(8 0 0)
(8 0 0)
(8 0 0)
(8 0 0)
(8 0 0)
(8 0 0)
(8 0 0)
(8 0 0)
(8 0 0)
(8 0 0)
(8 0 0)
(8 0 0)
(8 0 0)
(8 0 0)
(8 0 0)
(8 0 0)
(8 0 0)
(8 0 0)
(8 0 0)
(8 0 0)
(8 0 0)
(8 0 0)
(8 0 0)
(8 0 0)
(8 0 0)
(8 0 0)
(8 0 0)
(8 0 0)
(8 0 0)
(8 0 0)
(8 0 0)
(8 0 0)
(8 0 0)
(8 0 0)
(8 0 0)
(8 0 0)
(8 0 0)
(8 0 0)
(8 0 0)
(8 0 0)
(8 0 0)
(8 0 0)
(8 0 0)
(8 0 0)
(8 0 0)
(8 0 0)
(8 0 0)
(8 0 0)
(8 0 0)
(8 0 0)
(8 0 0)
(8 0 0)
(8 0 0)
(8 0 0)
(8 0 0)
(8 0 0)
(8 0 0)
(8 0 0)
(8 0 0)
(8 0 0)
(8 0 0)
(8 0 0)
(8 0 0)
(8 0 0)
(8 0 0)
(8 0 0)
(8 0 0)
(8 0 0)
(8 0 0)
(8 0 0)
(8 0 0)
(8 0 0)
(8 0 0)
(8 0 0)
(8 0 0)
(8 0 0)
(8 0 0)
(8 0 0)
(8 0 0)
(8 0 0)
(8 0 0)
(8 0 0)
(8 0 0)
(8 0 0)
(8 0 0)
(8 0 0)
(8 0 0)
(8 0 0)
(8 0 0)
(8 0 0)
(8 0 0)
(8 0 0)
(8 0 0)
(8 0 0)
(8 0 0)
(8 0 0)
(8 0 0)
(8 0 0)
(8 0 0)
(8 0 0)
(8 0 0)
(8 0 0)
(8 0 0)
(8 0 0)
(8 0 0)
(8 0 0)
(8 0 0)
(8 0 0)
(8 0 0)
(8 0 0)
(8 0 0)
(8 0 0)
(8 0 0)
(8 0 0)
(8 0 0)
(8 0 0)
(8 0 0)
(8 0 0)
(8 0 0)
(8 0 0)
(8 0 0)
(8 0 0)
(8 0 0)
(8 0 0)
(8 0 0)
(8 0 0)
(8 0 0)
(8 0 0)
(8 0 0)
(8 0 0)
(8 0 0)
(8 0 0)
(8 0 0)
(8 0 0)
(8 0 0)
(8 0 0)
(8 0 0)
(8 0 0)
(8 0 0)
(8 0 0)
(8 0 0)
(8 0 0)
(8 0 0)
(8 0 0)
(8 0 0)
(8 0 0)
(8 0 0)
(8 0 0)
(8 0 0)
(8 0 0)
(8 0 0)
(8 0 0)
(8 0 0)
(8 0 0)
(8 0 0)
(8 0 0)
(8 0 0)
(8 0 0)
(8 0 0)
(8 0 0)
(8 0 0)
(8 0 0)
(8 0 0)
(8 0 0)
(8 0 0)
(8 0 0)
(8 0 0)
(8 0 0)
(8 0 0)
(8 0 0)
(8 0 0)
(8 0 0)
(8 0 0)
(8 0 0)
(8 0 0)
(8 0 0)
(8 0 0)
(8 0 0)
(8 0 0)
(8 0 0)
(8 0 0)
(8 0 0)
(8 0 0)
(8 0 0)
(8 0 0)
(8 0 0)
(8 0 0)
(8 0 0)
(8 0 0)
(8 0 0)
(8 0 0)
(8 0 0)
(8 0 0)
(8 0 0)
(8 0 0)
(8 0 0)
(8 0 0)
(8 0 0)
(8 0 0)
(8 0 0)
(8 0 0)
(8 0 0)
(8 0 0)
(8 0 0)
(8 0 0)
(8 0 0)
(8 0 0)
(8 0 0)
(8 0 0)
(8 0 0)
(8 0 0)
(8 0 0)
(8 0 0)
(8 0 0)
(8 0 0)
(8 0 0)
(8 0 0)
(8 0 0)
(8 0 0)
(8 0 0)
(8 0 0)
(8 0 0)
(8 0 0)
(8 0 0)
(8 0 0)
(8 0 0)
(8 0 0)
(8 0 0)
(8 0 0)
(8 0 0)
(8 0 0)
(8 0 0)
(8 0 0)
(8 0 0)
(8 0 0)
(8 0 0)
(8 0 0)
(8 0 0)
(8 0 0)
(8 0 0)
(8 0 0)
(8 0 0)
(8 0 0)
(8 0 0)
(8 0 0)
(8 0 0)
(8 0 0)
(8 0 0)
(8 0 0)
(8 0 0)
(8 0 0)
(8 0 0)
(8 0 0)
(8 0 0)
(8 0 0)
(8 0 0)
(8 0 0)
(8 0 0)
(8 0 0)
(8 0 0)
(8 0 0)
(8 0 0)
(8 0 0)
(8 0 0)
(8 0 0)
(8 0 0)
(8 0 0)
(8 0 0)
(8 0 0)
(8 0 0)
(8 0 0)
(8 0 0)
(8 0 0)
(8 0 0)
(8 0 0)
(8 0 0)
(8 0 0)
(8 0 0)
(8 0 0)
(8 0 0)
(8 0 0)
(8 0 0)
(8 0 0)
(8 0 0)
(8 0 0)
(8 0 0)
(8 0 0)
(8 0 0)
(8 0 0)
(8 0 0)
(8 0 0)
(8 0 0)
(8 0 0)
(8 0 0)
(8 0 0)
(8 0 0)
(8 0 0)
(8 0 0)
(8 0 0)
(8 0 0)
(8 0 0)
(8 0 0)
(8 0 0)
(8 0 0)
(8 0 0)
(8 0 0)
(8 0 0)
(8 0 0)
(8 0 0)
(8 0 0)
(8 0 0)
(8 0 0)
(8 0 0)
(8 0 0)
(8 0 0)
(8 0 0)
(8 0 0)
(8 0 0)
(8 0 0)
(8 0 0)
(8 0 0)
(8 0 0)
(8 0 0)
(8 0 0)
(8 0 0)
(8 0 0)
(8 0 0)
(8 0 0)
(8 0 0)
(8 0 0)
(8 0 0)
(8 0 0)
(8 0 0)
(8 0 0)
(8 0 0)
(8 0 0)
(8 0 0)
(8 0 0)
(8 0 0)
(8 0 0)
(8 0 0)
(8 0 0)
(8 0 0)
(8 0 0)
(8 0 0)
(8 0 0)
(8 0 0)
(8 0 0)
(8 0 0)
(8 0 0)
(8 0 0)
(8 0 0)
(8 0 0)
(8 0 0)
(8 0 0)
(8 0 0)
(8 0 0)
(8 0 0)
(8 0 0)
(8 0 0)
(8 0 0)
(8 0 0)
(8 0 0)
(8 0 0)
(8 0 0)
(8 0 0)
(8 0 0)
(8 0 0)
(8 0 0)
(8 0 0)
(8 0 0)
(8 0 0)
(8 0 0)
(8 0 0)
(8 0 0)
(8 0 0)
(8 0 0)
(8 0 0)
(8 0 0)
(8 0 0)
(8 0 0)
(8 0 0)
(8 0 0)
(8 0 0)
(8 0 0)
(8 0 0)
(8 0 0)
(8 0 0)
(8 0 0)
(8 0 0)
(8 0 0)
(8 0 0)
(8 0 0)
(8 0 0)
(8 0 0)
(8 0 0)
(8 0 0)
(8 0 0)
(8 0 0)
(8 0 0)
(8 0 0)
(8 0 0)
(8 0 0)
(8 0 0)
(8 0 0)
(8 0 0)
(8 0 0)
(8 0 0)
(8 0 0)
(8 0 0)
(8 0 0)
(8 0 0)
(8 0 0)
(8 0 0)
(8 0 0)
(8 0 0)
(8 0 0)
(8 0 0)
(8 0 0)
(8 0 0)
(8 0 0)
(8 0 0)
(8 0 0)
(8 0 0)
(8 0 0)
(8 0 0)
(8 0 0)
(8 0 0)
(8 0 0)
(8 0 0)
(8 0 0)
(8 0 0)
(8 0 0)
(8 0 0)
(8 0 0)
(8 0 0)
(8 0 0)
(8 0 0)
(8 0 0)
(8 0 0)
(8 0 0)
(8 0 0)
(8 0 0)
(8 0 0)
(8 0 0)
(8 0 0)
(8 0 0)
(8 0 0)
(8 0 0)
(8 0 0)
(8 0 0)
(8 0 0)
(8 0 0)
(8 0 0)
(8 0 0)
(8 0 0)
(8 0 0)
(8 0 0)
(8 0 0)
(8 0 0)
(8 0 0)
(8 0 0)
(8 0 0)
(8 0 0)
(8 0 0)
(8 0 0)
(8 0 0)
(8 0 0)
(8 0 0)
(8 0 0)
(8 0 0)
(8 0 0)
(8 0 0)
(8 0 0)
(8 0 0)
(8 0 0)
(8 0 0)
(8 0 0)
(8 0 0)
(8 0 0)
(8 0 0)
(8 0 0)
(8 0 0)
(8 0 0)
(8 0 0)
(8 0 0)
(8 0 0)
(8 0 0)
(8 0 0)
(8 0 0)
(8 0 0)
(8 0 0)
(8 0 0)
(8 0 0)
(8 0 0)
(8 0 0)
(8 0 0)
(8 0 0)
(8 0 0)
(8 0 0)
(8 0 0)
(8 0 0)
(8 0 0)
(8 0 0)
(8 0 0)
(8 0 0)
(8 0 0)
(8 0 0)
(8 0 0)
(8 0 0)
(8 0 0)
(8 0 0)
(8 0 0)
(8 0 0)
(8 0 0)
(8 0 0)
(8 0 0)
(8 0 0)
(8 0 0)
(8 0 0)
(8 0 0)
(8 0 0)
(8 0 0)
(8 0 0)
(8 0 0)
(8 0 0)
(8 0 0)
(8 0 0)
(8 0 0)
(8 0 0)
(8 0 0)
(8 0 0)
(8 0 0)
(8 0 0)
(8 0 0)
(8 0 0)
(8 0 0)
(8 0 0)
(8 0 0)
(8 0 0)
(8 0 0)
(8 0 0)
(8 0 0)
(8 0 0)
(8 0 0)
(8 0 0)
(8 0 0)
(8 0 0)
(8 0 0)
(8 0 0)
(8 0 0)
(8 0 0)
(8 0 0)
(8 0 0)
(8 0 0)
(8 0 0)
(8 0 0)
(8 0 0)
(8 0 0)
(8 0 0)
(8 0 0)
(8 0 0)
(8 0 0)
(8 0 0)
(8 0 0)
(8 0 0)
(8 0 0)
(8 0 0)
(8 0 0)
(8 0 0)
(8 0 0)
(8 0 0)
(8 0 0)
(8 0 0)
(8 0 0)
(8 0 0)
(8 0 0)
(8 0 0)
(8 0 0)
(8 0 0)
(8 0 0)
(8 0 0)
(8 0 0)
(8 0 0)
(8 0 0)
(8 0 0)
(8 0 0)
(8 0 0)
(8 0 0)
(8 0 0)
(8 0 0)
(8 0 0)
(8 0 0)
(8 0 0)
(8 0 0)
(8 0 0)
(8 0 0)
(8 0 0)
(8 0 0)
(8 0 0)
(8 0 0)
(8 0 0)
(8 0 0)
(8 0 0)
(8 0 0)
(8 0 0)
(8 0 0)
(8 0 0)
(8 0 0)
(8 0 0)
(8 0 0)
(8 0 0)
(8 0 0)
(8 0 0)
(8 0 0)
(8 0 0)
(8 0 0)
(8 0 0)
(8 0 0)
(8 0 0)
(8 0 0)
(8 0 0)
(8 0 0)
(8 0 0)
(8 0 0)
(8 0 0)
(8 0 0)
(8 0 0)
(8 0 0)
(8 0 0)
(8 0 0)
(8 0 0)
(8 0 0)
(8 0 0)
(8 0 0)
(8 0 0)
(8 0 0)
(8 0 0)
(8 0 0)
(8 0 0)
(8 0 0)
(8 0 0)
(8 0 0)
(8 0 0)
(8 0 0)
(8 0 0)
(8 0 0)
(8 0 0)
(8 0 0)
(8 0 0)
(8 0 0)
(8 0 0)
(8 0 0)
(8 0 0)
(8 0 0)
(8 0 0)
(8 0 0)
(8 0 0)
(8 0 0)
(8 0 0)
(8 0 0)
(8 0 0)
(8 0 0)
(8 0 0)
(8 0 0)
(8 0 0)
(8 0 0)
(8 0 0)
(8 0 0)
(8 0 0)
(8 0 0)
(8 0 0)
(8 0 0)
(8 0 0)
(8 0 0)
(8 0 0)
(8 0 0)
(8 0 0)
(8 0 0)
(8 0 0)
(8 0 0)
(8 0 0)
(8 0 0)
(8 0 0)
(8 0 0)
(8 0 0)
(8 0 0)
(8 0 0)
(8 0 0)
(8 0 0)
(8 0 0)
(8 0 0)
(8 0 0)
(8 0 0)
(8 0 0)
(8 0 0)
(8 0 0)
(8 0 0)
(8 0 0)
(8 0 0)
(8 0 0)
(8 0 0)
(8 0 0)
(8 0 0)
(8 0 0)
(8 0 0)
(8 0 0)
(8 0 0)
(8 0 0)
(8 0 0)
(8 0 0)
(8 0 0)
(8 0 0)
(8 0 0)
(8 0 0)
(8 0 0)
(8 0 0)
(8 0 0)
(8 0 0)
(8 0 0)
(8 0 0)
(8 0 0)
(8 0 0)
(8 0 0)
(8 0 0)
(8 0 0)
(8 0 0)
(8 0 0)
(8 0 0)
(8 0 0)
(8 0 0)
(8 0 0)
(8 0 0)
(8 0 0)
(8 0 0)
(8 0 0)
(8 0 0)
(8 0 0)
(8 0 0)
(8 0 0)
(8 0 0)
(8 0 0)
(8 0 0)
(8 0 0)
(8 0 0)
(8 0 0)
(8 0 0)
(8 0 0)
(8 0 0)
(8 0 0)
(8 0 0)
(8 0 0)
(8 0 0)
(8 0 0)
(8 0 0)
(8 0 0)
(8 0 0)
(8 0 0)
(8 0 0)
(8 0 0)
(8 0 0)
(8 0 0)
(8 0 0)
(8 0 0)
(8 0 0)
(8 0 0)
(8 0 0)
(8 0 0)
(8 0 0)
(8 0 0)
(8 0 0)
(8 0 0)
(8 0 0)
(8 0 0)
(8 0 0)
(8 0 0)
(8 0 0)
(8 0 0)
(8 0 0)
(8 0 0)
(8 0 0)
(8 0 0)
(8 0 0)
(8 0 0)
(8 0 0)
(8 0 0)
(8 0 0)
(8 0 0)
(8 0 0)
(8 0 0)
(8 0 0)
(8 0 0)
(8 0 0)
(8 0 0)
(8 0 0)
(8 0 0)
(8 0 0)
(8 0 0)
(8 0 0)
(8 0 0)
(8 0 0)
(8 0 0)
(8 0 0)
(8 0 0)
(8 0 0)
(8 0 0)
(8 0 0)
(8 0 0)
(8 0 0)
(8 0 0)
(8 0 0)
(8 0 0)
(8 0 0)
(8 0 0)
(8 0 0)
(8 0 0)
(8 0 0)
(8 0 0)
(8 0 0)
(8 0 0)
(8 0 0)
(8 0 0)
(8 0 0)
(8 0 0)
(8 0 0)
(8 0 0)
(8 0 0)
(8 0 0)
(8 0 0)
(8 0 0)
(8 0 0)
(8 0 0)
(8 0 0)
(8 0 0)
(8 0 0)
(8 0 0)
(8 0 0)
(8 0 0)
(8 0 0)
(8 0 0)
(8 0 0)
(8 0 0)
(8 0 0)
(8 0 0)
(8 0 0)
(8 0 0)
(8 0 0)
(8 0 0)
(8 0 0)
(8 0 0)
(8 0 0)
(8 0 0)
(8 0 0)
(8 0 0)
(8 0 0)
(8 0 0)
(8 0 0)
(8 0 0)
(8 0 0)
(8 0 0)
(8 0 0)
(8 0 0)
(8 0 0)
(8 0 0)
(8 0 0)
(8 0 0)
(8 0 0)
(8 0 0)
(8 0 0)
(8 0 0)
(8 0 0)
(8 0 0)
(8 0 0)
(8 0 0)
(8 0 0)
(8 0 0)
(8 0 0)
(8 0 0)
(8 0 0)
(8 0 0)
(8 0 0)
(8 0 0)
(8 0 0)
(8 0 0)
(8 0 0)
(8 0 0)
(8 0 0)
(8 0 0)
(8 0 0)
(8 0 0)
(8 0 0)
(8 0 0)
(8 0 0)
(8 0 0)
(8 0 0)
(8 0 0)
(8 0 0)
(8 0 0)
(8 0 0)
(8 0 0)
(8 0 0)
(8 0 0)
(8 0 0)
(8 0 0)
(8 0 0)
(8 0 0)
(8 0 0)
(8 0 0)
(8 0 0)
(8 0 0)
(8 0 0)
(8 0 0)
(8 0 0)
(8 0 0)
(8 0 0)
(8 0 0)
(8 0 0)
(8 0 0)
(8 0 0)
(8 0 0)
(8 0 0)
(8 0 0)
(8 0 0)
(8 0 0)
(8 0 0)
(8 0 0)
(8 0 0)
(8 0 0)
(8 0 0)
(8 0 0)
(8 0 0)
(8 0 0)
(8 0 0)
(8 0 0)
(8 0 0)
(8 0 0)
(8 0 0)
(8 0 0)
(8 0 0)
(8 0 0)
(8 0 0)
(8 0 0)
(8 0 0)
(8 0 0)
(8 0 0)
(8 0 0)
(8 0 0)
(8 0 0)
(8 0 0)
(8 0 0)
(8 0 0)
(8 0 0)
(8 0 0)
(8 0 0)
(8 0 0)
(8 0 0)
(8 0 0)
(8 0 0)
(8 0 0)
(8 0 0)
(8 0 0)
(8 0 0)
(8 0 0)
(8 0 0)
(8 0 0)
(8 0 0)
(8 0 0)
(8 0 0)
(8 0 0)
(8 0 0)
(8 0 0)
(8 0 0)
(8 0 0)
(8 0 0)
(8 0 0)
(8 0 0)
(8 0 0)
(8 0 0)
(8 0 0)
(8 0 0)
(8 0 0)
(8 0 0)
(8 0 0)
(8 0 0)
(8 0 0)
(8 0 0)
(8 0 0)
(8 0 0)
(8 0 0)
(8 0 0)
(8 0 0)
(8 0 0)
(8 0 0)
(8 0 0)
(8 0 0)
(8 0 0)
(8 0 0)
(8 0 0)
(8 0 0)
(8 0 0)
(8 0 0)
(8 0 0)
(8 0 0)
(8 0 0)
(8 0 0)
(8 0 0)
(8 0 0)
(8 0 0)
(8 0 0)
(8 0 0)
(8 0 0)
(8 0 0)
(8 0 0)
(8 0 0)
(8 0 0)
(8 0 0)
(8 0 0)
(8 0 0)
(8 0 0)
(8 0 0)
(8 0 0)
(8 0 0)
(8 0 0)
(8 0 0)
(8 0 0)
(8 0 0)
(8 0 0)
(8 0 0)
(8 0 0)
(8 0 0)
(8 0 0)
(8 0 0)
(8 0 0)
(8 0 0)
(8 0 0)
(8 0 0)
(8 0 0)
(8 0 0)
(8 0 0)
(8 0 0)
(8 0 0)
(8 0 0)
(8 0 0)
(8 0 0)
(8 0 0)
(8 0 0)
(8 0 0)
(8 0 0)
(8 0 0)
(8 0 0)
(8 0 0)
(8 0 0)
(8 0 0)
(8 0 0)
(8 0 0)
(8 0 0)
(8 0 0)
(8 0 0)
(8 0 0)
(8 0 0)
(8 0 0)
(8 0 0)
(8 0 0)
(8 0 0)
(8 0 0)
(8 0 0)
(8 0 0)
(8 0 0)
(8 0 0)
(8 0 0)
(8 0 0)
(8 0 0)
(8 0 0)
(8 0 0)
(8 0 0)
(8 0 0)
(8 0 0)
(8 0 0)
(8 0 0)
(8 0 0)
(8 0 0)
(8 0 0)
(8 0 0)
(8 0 0)
(8 0 0)
(8 0 0)
(8 0 0)
(8 0 0)
(8 0 0)
(8 0 0)
(8 0 0)
(8 0 0)
(8 0 0)
(8 0 0)
(8 0 0)
(8 0 0)
(8 0 0)
(8 0 0)
(8 0 0)
(8 0 0)
(8 0 0)
(8 0 0)
(8 0 0)
(8 0 0)
(8 0 0)
(8 0 0)
(8 0 0)
(8 0 0)
(8 0 0)
(8 0 0)
(8 0 0)
(8 0 0)
(8 0 0)
(8 0 0)
(8 0 0)
(8 0 0)
(8 0 0)
(8 0 0)
(8 0 0)
(8 0 0)
(8 0 0)
(8 0 0)
(8 0 0)
(8 0 0)
(8 0 0)
(8 0 0)
(8 0 0)
(8 0 0)
(8 0 0)
(8 0 0)
(8 0 0)
(8 0 0)
(8 0 0)
(8 0 0)
(8 0 0)
(8 0 0)
(8 0 0)
(8 0 0)
(8 0 0)
(8 0 0)
(8 0 0)
(8 0 0)
(8 0 0)
(8 0 0)
(8 0 0)
(8 0 0)
(8 0 0)
(8 0 0)
(8 0 0)
(8 0 0)
(8 0 0)
(8 0 0)
(8 0 0)
(8 0 0)
(8 0 0)
(8 0 0)
(8 0 0)
(8 0 0)
(8 0 0)
(8 0 0)
(8 0 0)
(8 0 0)
(8 0 0)
(8 0 0)
(8 0 0)
(8 0 0)
(8 0 0)
(8 0 0)
(8 0 0)
(8 0 0)
(8 0 0)
(8 0 0)
(8 0 0)
(8 0 0)
(8 0 0)
(8 0 0)
(8 0 0)
(8 0 0)
(8 0 0)
(8 0 0)
(8 0 0)
(8 0 0)
(8 0 0)
(8 0 0)
(8 0 0)
(8 0 0)
(8 0 0)
(8 0 0)
(8 0 0)
(8 0 0)
(8 0 0)
(8 0 0)
(8 0 0)
(8 0 0)
(8 0 0)
(8 0 0)
(8 0 0)
(8 0 0)
(8 0 0)
(8 0 0)
(8 0 0)
(8 0 0)
(8 0 0)
(8 0 0)
(8 0 0)
(8 0 0)
(8 0 0)
(8 0 0)
(8 0 0)
(8 0 0)
(8 0 0)
(8 0 0)
(8 0 0)
(8 0 0)
(8 0 0)
(8 0 0)
(8 0 0)
(8 0 0)
(8 0 0)
(8 0 0)
(8 0 0)
(8 0 0)
(8 0 0)
(8 0 0)
(8 0 0)
(8 0 0)
(8 0 0)
(8 0 0)
(8 0 0)
(8 0 0)
(8 0 0)
(8 0 0)
(8 0 0)
(8 0 0)
(8 0 0)
(8 0 0)
(8 0 0)
(8 0 0)
(8 0 0)
(8 0 0)
(8 0 0)
(8 0 0)
(8 0 0)
(8 0 0)
(8 0 0)
(8 0 0)
(8 0 0)
(8 0 0)
(8 0 0)
(8 0 0)
(8 0 0)
(8 0 0)
(8 0 0)
(8 0 0)
(8 0 0)
(8 0 0)
(8 0 0)
(8 0 0)
(8 0 0)
(8 0 0)
(8 0 0)
(8 0 0)
(8 0 0)
(8 0 0)
(8 0 0)
(8 0 0)
(8 0 0)
(8 0 0)
(8 0 0)
(8 0 0)
(8 0 0)
(8 0 0)
(8 0 0)
(8 0 0)
(8 0 0)
(8 0 0)
(8 0 0)
(8 0 0)
(8 0 0)
(8 0 0)
(8 0 0)
(8 0 0)
(8 0 0)
(8 0 0)
(8 0 0)
(8 0 0)
(8 0 0)
(8 0 0)
(8 0 0)
(8 0 0)
(8 0 0)
(8 0 0)
(8 0 0)
(8 0 0)
(8 0 0)
(8 0 0)
(8 0 0)
(8 0 0)
(8 0 0)
(8 0 0)
(8 0 0)
(8 0 0)
(8 0 0)
(8 0 0)
(8 0 0)
(8 0 0)
(8 0 0)
(8 0 0)
(8 0 0)
(8 0 0)
(8 0 0)
(8 0 0)
(8 0 0)
(8 0 0)
(8 0 0)
(8 0 0)
(8 0 0)
(8 0 0)
(8 0 0)
(8 0 0)
(8 0 0)
(8 0 0)
(8 0 0)
(8 0 0)
(8 0 0)
(8 0 0)
(8 0 0)
(8 0 0)
(8 0 0)
(8 0 0)
(8 0 0)
(8 0 0)